24
Benchmark_alpha.122/FHI-aims_M06-HF_really-tight/geometry.in
C         -1.42028       -0.23704        2.42916
C          0.07090       -0.54949        2.57488
C          1.01933        0.61297        2.28538
C          1.07902        0.91907        0.79157
C          1.39856       -0.34332        0.00326
C          0.44603       -1.46303        0.39186
O          0.41084       -1.69676        1.78757
O          0.95068       -2.63202       -0.19389
O          2.73846       -0.71803        0.29080
O         -0.16875        1.39157        0.29900
O          2.30637        0.34181        2.80209
O         -1.64494        1.10440        2.87110
H         -1.98440       -0.94570        3.03672
H         -1.73026       -0.34426        1.39171
H          0.27457       -0.85273        3.59978
H          0.65195        1.49152        2.81427
H          1.87348        1.64901        0.61990
H          1.26865       -0.14201       -1.06330
H         -0.55411       -1.23966        0.01458
H          0.51075       -3.37411        0.23409
H          2.79662       -1.65612        0.06512
H         -0.62643        1.82721        1.02858
H          2.73940       -0.23415        2.15523
H         -2.59184        1.22496        2.98024
